[board]
type=System
children=cache_hierarchy clk_domain dvfs_handler memory processor workload
auto_unlink_shared_backstore=false
cache_line_size=64
eventq_index=0
exit_on_work_items=true
init_param=0
m5ops_base=0
mem_mode=timing
mem_ranges=0:1073741824
memories=board.memory.mem_ctrl0.dram board.memory.mem_ctrl1.dram
mmap_using_noreserve=false
multi_thread=false
num_work_ids=16
readfile=
redirect_paths=
shadow_rom_ranges=
shared_backstore=
symbolfile=
thermal_components=
thermal_model=Null
work_begin_ckpt_count=0
work_begin_cpu_id_exit=-1
work_begin_exit_count=0
work_cpus_ckpt_count=0
work_end_ckpt_count=0
work_end_exit_count=0
work_item_id=-1
workload=board.workload
system_port=board.cache_hierarchy.membus.cpu_side_ports[0]

[board.cache_hierarchy]
type=SubSystem
children=clusters l3_bus l3_cache membus
eventq_index=0
thermal_domain=Null

[board.cache_hierarchy.clusters]
type=SubSystem
children=dptw_cache iptw_cache l1dcache l1icache l2_bus l2cache
eventq_index=0
thermal_domain=Null

[board.cache_hierarchy.clusters.dptw_cache]
type=Cache
children=power_state replacement_policy tags
addr_ranges=0:18446744073709551615
assoc=4
clk_domain=board.clk_domain
clusivity=mostly_incl
compressor=Null
data_latency=1
demand_mshr_reserve=1
eventq_index=0
is_read_only=false
max_miss_count=0
move_contractions=true
mshrs=20
partitioning_manager=Null
power_model=
power_state=board.cache_hierarchy.clusters.dptw_cache.power_state
prefetcher=Null
replace_expansions=true
replacement_policy=board.cache_hierarchy.clusters.dptw_cache.replacement_policy
response_latency=1
sequential_access=false
size=8192
system=board
tag_latency=1
tags=board.cache_hierarchy.clusters.dptw_cache.tags
tgts_per_mshr=12
warmup_percentage=0
write_allocator=Null
write_buffers=8
writeback_clean=false
cpu_side=board.processor.cores.core.mmu.dtb.walker.port
mem_side=board.cache_hierarchy.clusters.l2_bus.cpu_side_ports[3]

[board.cache_hierarchy.clusters.dptw_cache.power_state]
type=PowerState
clk_gate_bins=20
clk_gate_max=1000000000000
clk_gate_min=1000
default_state=UNDEFINED
eventq_index=0
leaders=
possible_states=

[board.cache_hierarchy.clusters.dptw_cache.replacement_policy]
type=LRURP
eventq_index=0

[board.cache_hierarchy.clusters.dptw_cache.tags]
type=BaseSetAssoc
children=indexing_policy power_state
assoc=4
block_size=64
clk_domain=board.clk_domain
entry_size=64
eventq_index=0
indexing_policy=board.cache_hierarchy.clusters.dptw_cache.tags.indexing_policy
partitioning_manager=Null
power_model=
power_state=board.cache_hierarchy.clusters.dptw_cache.tags.power_state
replacement_policy=board.cache_hierarchy.clusters.dptw_cache.replacement_policy
sequential_access=false
size=8192
system=board
tag_latency=1
warmup_percentage=0

[board.cache_hierarchy.clusters.dptw_cache.tags.indexing_policy]
type=SetAssociative
assoc=4
entry_size=64
eventq_index=0
size=8192

[board.cache_hierarchy.clusters.dptw_cache.tags.power_state]
type=PowerState
clk_gate_bins=20
clk_gate_max=1000000000000
clk_gate_min=1000
default_state=UNDEFINED
eventq_index=0
leaders=
possible_states=

[board.cache_hierarchy.clusters.iptw_cache]
type=Cache
children=power_state replacement_policy tags
addr_ranges=0:18446744073709551615
assoc=4
clk_domain=board.clk_domain
clusivity=mostly_incl
compressor=Null
data_latency=1
demand_mshr_reserve=1
eventq_index=0
is_read_only=false
max_miss_count=0
move_contractions=true
mshrs=20
partitioning_manager=Null
power_model=
power_state=board.cache_hierarchy.clusters.iptw_cache.power_state
prefetcher=Null
replace_expansions=true
replacement_policy=board.cache_hierarchy.clusters.iptw_cache.replacement_policy
response_latency=1
sequential_access=false
size=8192
system=board
tag_latency=1
tags=board.cache_hierarchy.clusters.iptw_cache.tags
tgts_per_mshr=12
warmup_percentage=0
write_allocator=Null
write_buffers=8
writeback_clean=false
cpu_side=board.processor.cores.core.mmu.itb.walker.port
mem_side=board.cache_hierarchy.clusters.l2_bus.cpu_side_ports[2]

[board.cache_hierarchy.clusters.iptw_cache.power_state]
type=PowerState
clk_gate_bins=20
clk_gate_max=1000000000000
clk_gate_min=1000
default_state=UNDEFINED
eventq_index=0
leaders=
possible_states=

[board.cache_hierarchy.clusters.iptw_cache.replacement_policy]
type=LRURP
eventq_index=0

[board.cache_hierarchy.clusters.iptw_cache.tags]
type=BaseSetAssoc
children=indexing_policy power_state
assoc=4
block_size=64
clk_domain=board.clk_domain
entry_size=64
eventq_index=0
indexing_policy=board.cache_hierarchy.clusters.iptw_cache.tags.indexing_policy
partitioning_manager=Null
power_model=
power_state=board.cache_hierarchy.clusters.iptw_cache.tags.power_state
replacement_policy=board.cache_hierarchy.clusters.iptw_cache.replacement_policy
sequential_access=false
size=8192
system=board
tag_latency=1
warmup_percentage=0

[board.cache_hierarchy.clusters.iptw_cache.tags.indexing_policy]
type=SetAssociative
assoc=4
entry_size=64
eventq_index=0
size=8192

[board.cache_hierarchy.clusters.iptw_cache.tags.power_state]
type=PowerState
clk_gate_bins=20
clk_gate_max=1000000000000
clk_gate_min=1000
default_state=UNDEFINED
eventq_index=0
leaders=
possible_states=

[board.cache_hierarchy.clusters.l1dcache]
type=Cache
children=power_state replacement_policy tags
addr_ranges=0:18446744073709551615
assoc=8
clk_domain=board.clk_domain
clusivity=mostly_incl
compressor=Null
data_latency=2
demand_mshr_reserve=1
eventq_index=0
is_read_only=false
max_miss_count=0
move_contractions=true
mshrs=16
partitioning_manager=Null
power_model=
power_state=board.cache_hierarchy.clusters.l1dcache.power_state
prefetcher=Null
replace_expansions=true
replacement_policy=board.cache_hierarchy.clusters.l1dcache.replacement_policy
response_latency=1
sequential_access=false
size=32768
system=board
tag_latency=1
tags=board.cache_hierarchy.clusters.l1dcache.tags
tgts_per_mshr=8
warmup_percentage=0
write_allocator=Null
write_buffers=8
writeback_clean=false
cpu_side=board.processor.cores.core.dcache_port
mem_side=board.cache_hierarchy.clusters.l2_bus.cpu_side_ports[0]

[board.cache_hierarchy.clusters.l1dcache.power_state]
type=PowerState
clk_gate_bins=20
clk_gate_max=1000000000000
clk_gate_min=1000
default_state=UNDEFINED
eventq_index=0
leaders=
possible_states=

[board.cache_hierarchy.clusters.l1dcache.replacement_policy]
type=LRURP
eventq_index=0

[board.cache_hierarchy.clusters.l1dcache.tags]
type=BaseSetAssoc
children=indexing_policy power_state
assoc=8
block_size=64
clk_domain=board.clk_domain
entry_size=64
eventq_index=0
indexing_policy=board.cache_hierarchy.clusters.l1dcache.tags.indexing_policy
partitioning_manager=Null
power_model=
power_state=board.cache_hierarchy.clusters.l1dcache.tags.power_state
replacement_policy=board.cache_hierarchy.clusters.l1dcache.replacement_policy
sequential_access=false
size=32768
system=board
tag_latency=1
warmup_percentage=0

[board.cache_hierarchy.clusters.l1dcache.tags.indexing_policy]
type=SetAssociative
assoc=8
entry_size=64
eventq_index=0
size=32768

[board.cache_hierarchy.clusters.l1dcache.tags.power_state]
type=PowerState
clk_gate_bins=20
clk_gate_max=1000000000000
clk_gate_min=1000
default_state=UNDEFINED
eventq_index=0
leaders=
possible_states=

[board.cache_hierarchy.clusters.l1icache]
type=Cache
children=power_state replacement_policy tags
addr_ranges=0:18446744073709551615
assoc=8
clk_domain=board.clk_domain
clusivity=mostly_incl
compressor=Null
data_latency=1
demand_mshr_reserve=1
eventq_index=0
is_read_only=true
max_miss_count=0
move_contractions=true
mshrs=4
partitioning_manager=Null
power_model=
power_state=board.cache_hierarchy.clusters.l1icache.power_state
prefetcher=Null
replace_expansions=true
replacement_policy=board.cache_hierarchy.clusters.l1icache.replacement_policy
response_latency=1
sequential_access=false
size=32768
system=board
tag_latency=1
tags=board.cache_hierarchy.clusters.l1icache.tags
tgts_per_mshr=2
warmup_percentage=0
write_allocator=Null
write_buffers=8
writeback_clean=false
cpu_side=board.processor.cores.core.icache_port
mem_side=board.cache_hierarchy.clusters.l2_bus.cpu_side_ports[1]

[board.cache_hierarchy.clusters.l1icache.power_state]
type=PowerState
clk_gate_bins=20
clk_gate_max=1000000000000
clk_gate_min=1000
default_state=UNDEFINED
eventq_index=0
leaders=
possible_states=

[board.cache_hierarchy.clusters.l1icache.replacement_policy]
type=LRURP
eventq_index=0

[board.cache_hierarchy.clusters.l1icache.tags]
type=BaseSetAssoc
children=indexing_policy power_state
assoc=8
block_size=64
clk_domain=board.clk_domain
entry_size=64
eventq_index=0
indexing_policy=board.cache_hierarchy.clusters.l1icache.tags.indexing_policy
partitioning_manager=Null
power_model=
power_state=board.cache_hierarchy.clusters.l1icache.tags.power_state
replacement_policy=board.cache_hierarchy.clusters.l1icache.replacement_policy
sequential_access=false
size=32768
system=board
tag_latency=1
warmup_percentage=0

[board.cache_hierarchy.clusters.l1icache.tags.indexing_policy]
type=SetAssociative
assoc=8
entry_size=64
eventq_index=0
size=32768

[board.cache_hierarchy.clusters.l1icache.tags.power_state]
type=PowerState
clk_gate_bins=20
clk_gate_max=1000000000000
clk_gate_min=1000
default_state=UNDEFINED
eventq_index=0
leaders=
possible_states=

[board.cache_hierarchy.clusters.l2_bus]
type=CoherentXBar
children=power_state snoop_filter
clk_domain=board.clk_domain
eventq_index=0
forward_latency=0
frontend_latency=1
header_latency=1
max_outstanding_snoops=512
max_routing_table_size=512
point_of_coherency=false
point_of_unification=true
power_model=
power_state=board.cache_hierarchy.clusters.l2_bus.power_state
response_latency=1
snoop_filter=board.cache_hierarchy.clusters.l2_bus.snoop_filter
snoop_response_latency=1
system=board
use_default_range=false
width=32
cpu_side_ports=board.cache_hierarchy.clusters.l1dcache.mem_side board.cache_hierarchy.clusters.l1icache.mem_side board.cache_hierarchy.clusters.iptw_cache.mem_side board.cache_hierarchy.clusters.dptw_cache.mem_side
mem_side_ports=board.cache_hierarchy.clusters.l2cache.cpu_side

[board.cache_hierarchy.clusters.l2_bus.power_state]
type=PowerState
clk_gate_bins=20
clk_gate_max=1000000000000
clk_gate_min=1000
default_state=UNDEFINED
eventq_index=0
leaders=
possible_states=

[board.cache_hierarchy.clusters.l2_bus.snoop_filter]
type=SnoopFilter
eventq_index=0
lookup_latency=0
max_capacity=8388608
system=board

[board.cache_hierarchy.clusters.l2cache]
type=Cache
children=power_state replacement_policy tags
addr_ranges=0:18446744073709551615
assoc=16
clk_domain=board.clk_domain
clusivity=mostly_incl
compressor=Null
data_latency=6
demand_mshr_reserve=1
eventq_index=0
is_read_only=false
max_miss_count=0
move_contractions=true
mshrs=20
partitioning_manager=Null
power_model=
power_state=board.cache_hierarchy.clusters.l2cache.power_state
prefetcher=Null
replace_expansions=true
replacement_policy=board.cache_hierarchy.clusters.l2cache.replacement_policy
response_latency=3
sequential_access=false
size=1048576
system=board
tag_latency=3
tags=board.cache_hierarchy.clusters.l2cache.tags
tgts_per_mshr=12
warmup_percentage=0
write_allocator=Null
write_buffers=8
writeback_clean=false
cpu_side=board.cache_hierarchy.clusters.l2_bus.mem_side_ports[0]
mem_side=board.cache_hierarchy.l3_bus.cpu_side_ports[0]

[board.cache_hierarchy.clusters.l2cache.power_state]
type=PowerState
clk_gate_bins=20
clk_gate_max=1000000000000
clk_gate_min=1000
default_state=UNDEFINED
eventq_index=0
leaders=
possible_states=

[board.cache_hierarchy.clusters.l2cache.replacement_policy]
type=LRURP
eventq_index=0

[board.cache_hierarchy.clusters.l2cache.tags]
type=BaseSetAssoc
children=indexing_policy power_state
assoc=16
block_size=64
clk_domain=board.clk_domain
entry_size=64
eventq_index=0
indexing_policy=board.cache_hierarchy.clusters.l2cache.tags.indexing_policy
partitioning_manager=Null
power_model=
power_state=board.cache_hierarchy.clusters.l2cache.tags.power_state
replacement_policy=board.cache_hierarchy.clusters.l2cache.replacement_policy
sequential_access=false
size=1048576
system=board
tag_latency=3
warmup_percentage=0

[board.cache_hierarchy.clusters.l2cache.tags.indexing_policy]
type=SetAssociative
assoc=16
entry_size=64
eventq_index=0
size=1048576

[board.cache_hierarchy.clusters.l2cache.tags.power_state]
type=PowerState
clk_gate_bins=20
clk_gate_max=1000000000000
clk_gate_min=1000
default_state=UNDEFINED
eventq_index=0
leaders=
possible_states=

[board.cache_hierarchy.l3_bus]
type=CoherentXBar
children=power_state snoop_filter
clk_domain=board.clk_domain
eventq_index=0
forward_latency=0
frontend_latency=1
header_latency=1
max_outstanding_snoops=512
max_routing_table_size=512
point_of_coherency=false
point_of_unification=true
power_model=
power_state=board.cache_hierarchy.l3_bus.power_state
response_latency=1
snoop_filter=board.cache_hierarchy.l3_bus.snoop_filter
snoop_response_latency=1
system=board
use_default_range=false
width=32
cpu_side_ports=board.cache_hierarchy.clusters.l2cache.mem_side
mem_side_ports=board.cache_hierarchy.l3_cache.cpu_side

[board.cache_hierarchy.l3_bus.power_state]
type=PowerState
clk_gate_bins=20
clk_gate_max=1000000000000
clk_gate_min=1000
default_state=UNDEFINED
eventq_index=0
leaders=
possible_states=

[board.cache_hierarchy.l3_bus.snoop_filter]
type=SnoopFilter
eventq_index=0
lookup_latency=0
max_capacity=8388608
system=board

[board.cache_hierarchy.l3_cache]
type=Cache
children=power_state replacement_policy tags
addr_ranges=0:18446744073709551615
assoc=16
clk_domain=board.clk_domain
clusivity=mostly_incl
compressor=Null
data_latency=20
demand_mshr_reserve=1
eventq_index=0
is_read_only=false
max_miss_count=0
move_contractions=true
mshrs=32
partitioning_manager=Null
power_model=
power_state=board.cache_hierarchy.l3_cache.power_state
prefetcher=Null
replace_expansions=true
replacement_policy=board.cache_hierarchy.l3_cache.replacement_policy
response_latency=10
sequential_access=false
size=134217728
system=board
tag_latency=10
tags=board.cache_hierarchy.l3_cache.tags
tgts_per_mshr=16
warmup_percentage=0
write_allocator=Null
write_buffers=8
writeback_clean=false
cpu_side=board.cache_hierarchy.l3_bus.mem_side_ports[0]
mem_side=board.cache_hierarchy.membus.cpu_side_ports[2]

[board.cache_hierarchy.l3_cache.power_state]
type=PowerState
clk_gate_bins=20
clk_gate_max=1000000000000
clk_gate_min=1000
default_state=UNDEFINED
eventq_index=0
leaders=
possible_states=

[board.cache_hierarchy.l3_cache.replacement_policy]
type=LRURP
eventq_index=0

[board.cache_hierarchy.l3_cache.tags]
type=BaseSetAssoc
children=indexing_policy power_state
assoc=16
block_size=64
clk_domain=board.clk_domain
entry_size=64
eventq_index=0
indexing_policy=board.cache_hierarchy.l3_cache.tags.indexing_policy
partitioning_manager=Null
power_model=
power_state=board.cache_hierarchy.l3_cache.tags.power_state
replacement_policy=board.cache_hierarchy.l3_cache.replacement_policy
sequential_access=false
size=134217728
system=board
tag_latency=10
warmup_percentage=0

[board.cache_hierarchy.l3_cache.tags.indexing_policy]
type=SetAssociative
assoc=16
entry_size=64
eventq_index=0
size=134217728

[board.cache_hierarchy.l3_cache.tags.power_state]
type=PowerState
clk_gate_bins=20
clk_gate_max=1000000000000
clk_gate_min=1000
default_state=UNDEFINED
eventq_index=0
leaders=
possible_states=

[board.cache_hierarchy.membus]
type=CoherentXBar
children=badaddr_responder power_state snoop_filter
clk_domain=board.clk_domain
eventq_index=0
forward_latency=4
frontend_latency=3
header_latency=1
max_outstanding_snoops=512
max_routing_table_size=512
point_of_coherency=true
point_of_unification=true
power_model=
power_state=board.cache_hierarchy.membus.power_state
response_latency=2
snoop_filter=board.cache_hierarchy.membus.snoop_filter
snoop_response_latency=4
system=board
use_default_range=false
width=64
cpu_side_ports=board.system_port board.processor.cores.core.interrupts.int_requestor board.cache_hierarchy.l3_cache.mem_side
default=board.cache_hierarchy.membus.badaddr_responder.pio
mem_side_ports=board.memory.mem_ctrl0.port board.memory.mem_ctrl1.port board.processor.cores.core.interrupts.pio board.processor.cores.core.interrupts.int_responder

[board.cache_hierarchy.membus.badaddr_responder]
type=IsaFake
children=power_state
clk_domain=board.clk_domain
eventq_index=0
fake_mem=false
pio_addr=0
pio_latency=100000
pio_size=8
power_model=
power_state=board.cache_hierarchy.membus.badaddr_responder.power_state
ret_bad_addr=true
ret_data16=65535
ret_data32=4294967295
ret_data64=18446744073709551615
ret_data8=255
system=board
update_data=false
warn_access=
pio=board.cache_hierarchy.membus.default

[board.cache_hierarchy.membus.badaddr_responder.power_state]
type=PowerState
clk_gate_bins=20
clk_gate_max=1000000000000
clk_gate_min=1000
default_state=UNDEFINED
eventq_index=0
leaders=
possible_states=

[board.cache_hierarchy.membus.power_state]
type=PowerState
clk_gate_bins=20
clk_gate_max=1000000000000
clk_gate_min=1000
default_state=UNDEFINED
eventq_index=0
leaders=
possible_states=

[board.cache_hierarchy.membus.snoop_filter]
type=SnoopFilter
eventq_index=0
lookup_latency=1
max_capacity=8388608
system=board

[board.clk_domain]
type=SrcClockDomain
children=voltage_domain
clock=333
domain_id=-1
eventq_index=0
init_perf_level=0
voltage_domain=board.clk_domain.voltage_domain

[board.clk_domain.voltage_domain]
type=VoltageDomain
eventq_index=0
voltage=1.0

[board.dvfs_handler]
type=DVFSHandler
domains=
enable=false
eventq_index=0
sys_clk_domain=board.clk_domain
transition_latency=100000000

[board.memory]
type=SubSystem
children=mem_ctrl0 mem_ctrl1
eventq_index=0
thermal_domain=Null

[board.memory.mem_ctrl0]
type=MemCtrl
children=dram power_state
clk_domain=board.clk_domain
command_window=10000
disable_sanity_check=false
dram=board.memory.mem_ctrl0.dram
eventq_index=0
mem_sched_policy=frfcfs
min_reads_per_switch=16
min_writes_per_switch=16
power_model=
power_state=board.memory.mem_ctrl0.power_state
qos_policy=Null
qos_priorities=1
qos_priority_escalation=false
qos_q_policy=fifo
qos_requestors=               
qos_syncro_scheduler=false
qos_turnaround_policy=Null
static_backend_latency=10000
static_frontend_latency=10000
system=board
write_high_thresh_perc=85
write_low_thresh_perc=50
port=board.cache_hierarchy.membus.mem_side_ports[0]

[board.memory.mem_ctrl0.dram]
type=DRAMInterface
children=power_state
IDD0=0.048
IDD02=0.003
IDD2N=0.034
IDD2N2=0.0
IDD2P0=0.0
IDD2P02=0.0
IDD2P1=0.025
IDD2P12=0.0
IDD3N=0.043000000000000003
IDD3N2=0.003
IDD3P0=0.0
IDD3P02=0.0
IDD3P1=0.037
IDD3P12=0.0
IDD4R=0.135
IDD4R2=0.0
IDD4W=0.123
IDD4W2=0.0
IDD5=0.25
IDD52=0.0
IDD6=0.03
IDD62=0.0
VDD=1.2
VDD2=2.5
activation_limit=4
addr_mapping=RoRaBaCoCh
bank_groups_per_rank=4
banks_per_rank=16
beats_per_clock=2
burst_length=8
clk_domain=board.clk_domain
collect_stats=true
conf_table_reported=true
data_clock_sync=false
device_bus_width=8
device_rowbuffer_size=1024
device_size=1073741824
devices_per_rank=8
dll=true
enable_dram_powerdown=false
eventq_index=0
image_file=
in_addr_map=true
kvm_map=true
max_accesses_per_row=16
null=false
page_policy=open_adaptive
power_model=
power_state=board.memory.mem_ctrl0.dram.power_state
range=0:1073741824:0:64
ranks_per_channel=2
read_buffer_size=64
tAAD=833
tBURST=3332
tBURST_MAX=3332
tBURST_MIN=3332
tCCD_L=5000
tCCD_L_WR=5000
tCK=833
tCL=14160
tCS=1666
tCWL=14160
tPPD=0
tRAS=32000
tRCD=14160
tRCD_WR=14160
tREFI=7800000
tRFC=350000
tRP=14160
tRRD=3332
tRRD_L=4900
tRTP=7500
tRTW=1666
tWR=15000
tWTR=5000
tWTR_L=5000
tXAW=21000
tXP=6000
tXPDLL=0
tXS=340000
tXSDLL=0
two_cycle_activate=false
write_buffer_size=128
writeable=true

[board.memory.mem_ctrl0.dram.power_state]
type=PowerState
clk_gate_bins=20
clk_gate_max=1000000000000
clk_gate_min=1000
default_state=UNDEFINED
eventq_index=0
leaders=
possible_states=

[board.memory.mem_ctrl0.power_state]
type=PowerState
clk_gate_bins=20
clk_gate_max=1000000000000
clk_gate_min=1000
default_state=UNDEFINED
eventq_index=0
leaders=
possible_states=

[board.memory.mem_ctrl1]
type=MemCtrl
children=dram power_state
clk_domain=board.clk_domain
command_window=10000
disable_sanity_check=false
dram=board.memory.mem_ctrl1.dram
eventq_index=0
mem_sched_policy=frfcfs
min_reads_per_switch=16
min_writes_per_switch=16
power_model=
power_state=board.memory.mem_ctrl1.power_state
qos_policy=Null
qos_priorities=1
qos_priority_escalation=false
qos_q_policy=fifo
qos_requestors=               
qos_syncro_scheduler=false
qos_turnaround_policy=Null
static_backend_latency=10000
static_frontend_latency=10000
system=board
write_high_thresh_perc=85
write_low_thresh_perc=50
port=board.cache_hierarchy.membus.mem_side_ports[1]

[board.memory.mem_ctrl1.dram]
type=DRAMInterface
children=power_state
IDD0=0.048
IDD02=0.003
IDD2N=0.034
IDD2N2=0.0
IDD2P0=0.0
IDD2P02=0.0
IDD2P1=0.025
IDD2P12=0.0
IDD3N=0.043000000000000003
IDD3N2=0.003
IDD3P0=0.0
IDD3P02=0.0
IDD3P1=0.037
IDD3P12=0.0
IDD4R=0.135
IDD4R2=0.0
IDD4W=0.123
IDD4W2=0.0
IDD5=0.25
IDD52=0.0
IDD6=0.03
IDD62=0.0
VDD=1.2
VDD2=2.5
activation_limit=4
addr_mapping=RoRaBaCoCh
bank_groups_per_rank=4
banks_per_rank=16
beats_per_clock=2
burst_length=8
clk_domain=board.clk_domain
collect_stats=true
conf_table_reported=true
data_clock_sync=false
device_bus_width=8
device_rowbuffer_size=1024
device_size=1073741824
devices_per_rank=8
dll=true
enable_dram_powerdown=false
eventq_index=0
image_file=
in_addr_map=true
kvm_map=true
max_accesses_per_row=16
null=false
page_policy=open_adaptive
power_model=
power_state=board.memory.mem_ctrl1.dram.power_state
range=0:1073741824:1:64
ranks_per_channel=2
read_buffer_size=64
tAAD=833
tBURST=3332
tBURST_MAX=3332
tBURST_MIN=3332
tCCD_L=5000
tCCD_L_WR=5000
tCK=833
tCL=14160
tCS=1666
tCWL=14160
tPPD=0
tRAS=32000
tRCD=14160
tRCD_WR=14160
tREFI=7800000
tRFC=350000
tRP=14160
tRRD=3332
tRRD_L=4900
tRTP=7500
tRTW=1666
tWR=15000
tWTR=5000
tWTR_L=5000
tXAW=21000
tXP=6000
tXPDLL=0
tXS=340000
tXSDLL=0
two_cycle_activate=false
write_buffer_size=128
writeable=true

[board.memory.mem_ctrl1.dram.power_state]
type=PowerState
clk_gate_bins=20
clk_gate_max=1000000000000
clk_gate_min=1000
default_state=UNDEFINED
eventq_index=0
leaders=
possible_states=

[board.memory.mem_ctrl1.power_state]
type=PowerState
clk_gate_bins=20
clk_gate_max=1000000000000
clk_gate_min=1000
default_state=UNDEFINED
eventq_index=0
leaders=
possible_states=

[board.processor]
type=SubSystem
children=cores
eventq_index=0
thermal_domain=Null

[board.processor.cores]
type=SubSystem
children=core
eventq_index=0
thermal_domain=Null

[board.processor.cores.core]
type=BaseO3CPU
children=branchPred decoder fuPool interrupts isa mmu power_state tracer workload
LFSTSize=1024
LQEntries=512
LSQCheckLoads=true
LSQDepCheckShift=4
SQEntries=512
SSITSize=1024
activity=0
backComSize=5
branchPred=board.processor.cores.core.branchPred
cacheLoadPorts=200
cacheStorePorts=200
checker=Null
clk_domain=board.clk_domain
commitToDecodeDelay=1
commitToFetchDelay=1
commitToIEWDelay=1
commitToRenameDelay=1
commitWidth=12
cpu_id=-1
decodeToFetchDelay=1
decodeToRenameDelay=1
decodeWidth=10
decoder=board.processor.cores.core.decoder
dispatchWidth=12
do_checkpoint_insts=true
do_statistics_insts=true
eventq_index=0
fetchBufferSize=64
fetchQueueSize=32
fetchToDecodeDelay=1
fetchTrapLatency=1
fetchWidth=10
forwardComSize=5
fuPool=board.processor.cores.core.fuPool
function_trace=false
function_trace_start=0
iewToCommitDelay=1
iewToDecodeDelay=1
iewToFetchDelay=1
iewToRenameDelay=1
interrupts=board.processor.cores.core.interrupts
isa=board.processor.cores.core.isa
issueToExecuteDelay=1
issueWidth=12
max_insts_all_threads=0
max_insts_any_thread=0
mmu=board.processor.cores.core.mmu
needsTSO=true
numIQEntries=900
numPhysCCRegs=4580
numPhysFloatRegs=932
numPhysIntRegs=916
numPhysMatRegs=2
numPhysVecPredRegs=32
numPhysVecRegs=256
numROBEntries=900
numRobs=1
numThreads=1
power_gating_on_idle=false
power_model=
power_state=board.processor.cores.core.power_state
progress_interval=0
pwr_gating_latency=300
renameToDecodeDelay=1
renameToFetchDelay=1
renameToIEWDelay=2
renameToROBDelay=1
renameWidth=10
simpoint_start_insts=
smtCommitPolicy=RoundRobin
smtFetchPolicy=RoundRobin
smtIQPolicy=Partitioned
smtIQThreshold=100
smtLSQPolicy=Partitioned
smtLSQThreshold=100
smtNumFetchingThreads=1
smtROBPolicy=Partitioned
smtROBThreshold=100
socket_id=0
squashWidth=8
store_set_clear_period=250000
switched_out=false
syscallRetryLatency=10000
system=board
tracer=board.processor.cores.core.tracer
trapLatency=13
wbWidth=12
workload=board.processor.cores.core.workload
dcache_port=board.cache_hierarchy.clusters.l1dcache.cpu_side
icache_port=board.cache_hierarchy.clusters.l1icache.cpu_side

[board.processor.cores.core.branchPred]
type=MultiperspectivePerceptron8KB
children=btb indirectBranchPred ras
bias0=-5
bias1=5
biasmostly0=-1
biasmostly1=1
block_size=21
btb=board.processor.cores.core.branchPred.btb
budgetbits=67584
decay=0
eventq_index=0
extra_rounds=1
fudge=0.245
hash_taken=false
hshift=-6
ignore_path_size=false
imli_mask1=6
imli_mask4=17408
indirectBranchPred=board.processor.cores.core.branchPred.indirectBranchPred
initial_ghist_length=1
initial_theta=10
instShiftAmt=2
local_history_length=36
n_sign_bits=2
nbest=20
numThreads=1
num_filter_entries=0
num_local_histories=512
pcbit=2
pcshift=-10
ras=board.processor.cores.core.branchPred.ras
recencypos_mask=4294967440
record_mask=191
requiresBTBHit=false
speculative_update=false
speed=9
threshold=1
tunebits=24
tuneonly=true

[board.processor.cores.core.branchPred.btb]
type=SimpleBTB
children=power_state
clk_domain=board.clk_domain
eventq_index=0
instShiftAmt=2
numEntries=8192
numThreads=1
power_model=
power_state=board.processor.cores.core.branchPred.btb.power_state
tagBits=18

[board.processor.cores.core.branchPred.btb.power_state]
type=PowerState
clk_gate_bins=20
clk_gate_max=1000000000000
clk_gate_min=1000
default_state=UNDEFINED
eventq_index=0
leaders=
possible_states=

[board.processor.cores.core.branchPred.indirectBranchPred]
type=SimpleIndirectPredictor
eventq_index=0
indirectGHRBits=13
indirectHashGHR=true
indirectHashTargets=true
indirectPathLength=3
indirectSets=256
indirectTagSize=16
indirectWays=2
instShiftAmt=2
numThreads=1
speculativePathLength=256

[board.processor.cores.core.branchPred.ras]
type=ReturnAddrStack
eventq_index=0
numEntries=48
numThreads=1

[board.processor.cores.core.decoder]
type=X86Decoder
eventq_index=0
isa=board.processor.cores.core.isa

[board.processor.cores.core.fuPool]
type=FUPool
children=FUList00 FUList01 FUList02 FUList03 FUList04 FUList05 FUList06 FUList07 FUList08 FUList09 FUList10 FUList11
FUList=board.processor.cores.core.fuPool.FUList00 board.processor.cores.core.fuPool.FUList01 board.processor.cores.core.fuPool.FUList02 board.processor.cores.core.fuPool.FUList03 board.processor.cores.core.fuPool.FUList04 board.processor.cores.core.fuPool.FUList05 board.processor.cores.core.fuPool.FUList06 board.processor.cores.core.fuPool.FUList07 board.processor.cores.core.fuPool.FUList08 board.processor.cores.core.fuPool.FUList09 board.processor.cores.core.fuPool.FUList10 board.processor.cores.core.fuPool.FUList11
eventq_index=0

[board.processor.cores.core.fuPool.FUList00]
type=FUDesc
children=opList00 opList01 opList02 opList03 opList04 opList05 opList06 opList07 opList08 opList09 opList10 opList11 opList12 opList13 opList14 opList15 opList16 opList17 opList18 opList19 opList20 opList21 opList22 opList23 opList24 opList25 opList26 opList27 opList28 opList29 opList30 opList31 opList32 opList33 opList34 opList35 opList36 opList37 opList38 opList39 opList40 opList41 opList42 opList43 opList44 opList45 opList46 opList47 opList48 opList49 opList50 opList51 opList52 opList53 opList54 opList55 opList56 opList57 opList58 opList59 opList60 opList61 opList62 opList63 opList64 opList65 opList66 opList67 opList68 opList69 opList70 opList71 opList72
count=1
eventq_index=0